LAMMPS (29 Sep 2021 - Update 1)

units metal
boundary p p p
atom_style atomic
atom_modify map yes
read_data input/nylon.data
Reading data file ...
  orthogonal box = (0.0000000 0.0000000 0.0000000) to (33.591000 33.591000 33.591000)
  reading atoms ...
  3880 atoms

pair_style pfp_api v5.0.0 CRYSTAL_PLUS_D3
pair_coeff * * species H C N O

timestep 0.001

thermo 100
thermo_style custom step temp etotal pe ke lx ly lz vol press density
velocity all create 300 12345 dist gaussian mom yes
fix NPT all npt temp 300 300 0.1 iso 0.987 0.987 1.0
run 10000
  update every 1 steps, delay 10 steps, check yes
Step Temp TotEng PotEng KinEng Lx Ly Lz Volume Press Density
0          300    -17241.41    -17391.83    150.42003       33.591       33.591       33.591    37902.582    10140.057    1.0046767
Averages over the last 51 of 101 rows, steps 5000 to 10000:
Temp TotEng PotEng KinEng Lx Ly Lz Volume Press Density
300.004 -17238.3 -17388.7 150.422 33.4111 33.4111 33.4111 37297.4 -7.73644 1.02103
Loop time of 9009.75 on 1 procs for 10000 steps with 3880 atoms

unfix NPT

dump 1 all custom 100 tensile.lammpstrj id type element x y z vx vy vz fx fy fz
dump_modify 1 element H C N O

thermo_style custom step elapsed temp pe ke etotal press vol density pxx pyy pzz lx ly lz
fix NPT all npt temp 300 300 0.1 x 0.987 0.987 1.0 y 0.987 0.987 1.0 drag 1.0
fix DEFORM all deform 1 z erate 0.5 units box remap x
reset_timestep 0
run 20000
Step Elapsed Temp PotEng KinEng TotEng Press Volume Density Pxx Pyy Pzz Lx Ly Lz
0        0    297.60887   -17391.511    149.22112    -17242.29    -1667.796    37058.468    1.0275611   -2225.5493   -68.401827    -2709.437    33.339761    33.339761    33.339761
Averages over the last 101 of 201 rows, steps 10000 to 20000:
Temp PotEng KinEng TotEng Press Volume Density Pxx Pyy Pzz Lx Ly Lz
302.945 -17345.6 151.897 -17193.7 -799.521 103820 0.366814 -112.705 -161.348 -2124.51 18.4788 20.2826 283.388
Loop time of 12003.6 on 1 procs for 20000 steps with 3880 atoms

unfix NPT
