LAMMPS (29 Sep 2021 - Update 3)

units metal
boundary p p p
atom_style atomic
atom_modify map yes
read_data input/mma-radical-addition.data
Reading data file ...
  orthogonal box = (0.0000000 0.0000000 0.0000000) to (20.000000 20.000000 20.000000)
  reading atoms ...
  31 atoms

mass 1 12.011
mass 2 1.008
mass 3 15.999

pair_style pfp_api v4.0.0 CRYSTAL_PLUS_D3
pair_coeff * * species C H O

timestep 0.001

thermo 1000
thermo_style custom step temp etotal pe ke lx vol press density

dump 1 all custom 1000 output/metadynamics.lammpstrj id type element x y z vx vy vz fx fy fz
dump_modify 1 element C H O

velocity all create 300 12345 dist gaussian mom yes
fix f1 all nvt temp 300 300 0.1
fix f2 all plumed plumedfile input/plumed.dat outfile output/plumed.log

run 500000
  update every 1 steps, delay 10 steps, check yes
Step Temp TotEng PotEng KinEng Lx Volume Press Density
0          300   -138.13044   -139.29378    1.1633413           20         8000    166.69778  0.041771272
Averages over the last 251 of 501 rows, steps 250000 to 500000:
Temp TotEng PotEng KinEng Lx Volume Press Density
294.23 -135.811 -136.952 1.14097 20 8000 12.7996 0.0417713
Loop time of 32542.7 on 1 procs for 500000 steps with 31 atoms

unfix f1
unfix f2
